          12
  -1013.45376297994        300.000000000000     
 C    1.40405673646470      -1.480403276443409E-003 -7.732813709002257E-004
 H    2.50127310029032       2.438738347525561E-004 -1.039115221073062E-003
 C   0.700823807113949        1.21219846122566       8.347393924748898E-005
 H    1.24839884018115        2.16689349916897       1.053855447176277E-003
 C   0.701149419191293       -1.21254222426531      -2.551442126370153E-004
 H    1.24867230537650       -2.16026198021901       5.564575323331742E-003
 C  -0.699761205680262        1.21380102486679       1.581374766949523E-003
 H   -1.25544514399001        2.16677134769026       7.848919660635621E-004
 C   -1.39840994486070       1.363127211085317E-004 -1.338504723448718E-003
 H   -2.49754577733270       9.760288841565000E-004  5.564938054566747E-003
 C  -0.700042890490718       -1.21185670420647       9.089128256601648E-004
 H   -1.24438423097989       -2.16442355943350       2.322658657106935E-004
